data_T-graphene
_audit_creation_date              2007-10-11
_audit_creation_method            'Materials Studio'
_symmetry_space_group_name_H-M    'P1'
_symmetry_Int_Tables_number       1
_symmetry_cell_setting            triclinic
loop_
_symmetry_equiv_pos_as_xyz
  x,y,z
_cell_length_a                   10.3402
_cell_length_b                   10.3402
_cell_length_c                   20.0000
_cell_angle_alpha                 90.0000
_cell_angle_beta                  90.0000
_cell_angle_gamma                 90.0000
loop_
_atom_site_label
_atom_site_type_symbol
_atom_site_fract_x
_atom_site_fract_y
_atom_site_fract_z
_atom_site_Uiso_or_equiv
_atom_site_adp_type
_atom_site_occupancy
A1     C     0.83333   0.73308   0.05000   0.00000  Uiso   1.00
A2     C     0.73308   0.83333   0.05000   0.00000  Uiso   1.00
A3     C     0.93359   0.83333   0.05000   0.00000  Uiso   1.00
A4     C     0.83333   0.93359   0.05000   0.00000  Uiso   1.00
A5     C     0.83333   0.06641   0.05000   0.00000  Uiso   1.00
A6     C     0.73308   0.16667   0.05000   0.00000  Uiso   1.00
A7     C     0.93359   0.16667   0.05000   0.00000  Uiso   1.00
A8     C     0.83333   0.26692   0.05000   0.00000  Uiso   1.00
A9     C     0.83333   0.39975   0.05000   0.00000  Uiso   1.00
A10    C     0.73308   0.50000   0.05000   0.00000  Uiso   1.00
A11    C     0.93359   0.50000   0.05000   0.00000  Uiso   1.00
A12    C     0.83333   0.60025   0.05000   0.00000  Uiso   1.00
A13    C     0.16667   0.73308   0.05000   0.00000  Uiso   1.00
A14    C     0.06641   0.83333   0.05000   0.00000  Uiso   1.00
A15    C     0.26692   0.83333   0.05000   0.00000  Uiso   1.00
A16    C     0.16667   0.93359   0.05000   0.00000  Uiso   1.00
A17    C     0.16667   0.06738   0.05000   0.00000  Uiso   1.00
A18    C     0.06641   0.16667   0.05000   0.00000  Uiso   1.00
A19    C     0.26692   0.16667   0.05000   0.00000  Uiso   1.00
A20    C     0.16667   0.26692   0.05000   0.00000  Uiso   1.00
A21    C     0.16667   0.39975   0.05000   0.00000  Uiso   1.00
A22    C     0.06641   0.50000   0.05000   0.00000  Uiso   1.00
A23    C     0.26692   0.50000   0.05000   0.00000  Uiso   1.00
A24    C     0.16667   0.60025   0.05000   0.00000  Uiso   1.00
A25    C     0.50000   0.73308   0.05000   0.00000  Uiso   1.00
A26    C     0.39975   0.83333   0.05000   0.00000  Uiso   1.00
A27    C     0.60025   0.83333   0.05000   0.00000  Uiso   1.00
A28    C     0.50000   0.93359   0.05000   0.00000  Uiso   1.00
A29    C     0.50000   0.06641   0.05000   0.00000  Uiso   1.00
A30    C     0.39975   0.16667   0.05000   0.00000  Uiso   1.00
A31    C     0.60025   0.16667   0.05000   0.00000  Uiso   1.00
A32    C     0.50000   0.26692   0.05000   0.00000  Uiso   1.00
A33    C     0.50000   0.39975   0.05000   0.00000  Uiso   1.00
A34    C     0.39975   0.50000   0.05000   0.00000  Uiso   1.00
A35    C     0.60025   0.50000   0.05000   0.00000  Uiso   1.00
A36    C     0.50000   0.60025   0.05000   0.00000  Uiso   1.00
